LTspice 24.0.12 for Windows
Circuit: * C:\Users\wilso\OneDrive\Desktop\Weather Station\Schematics\Automatic Power Switching\Draft1.asc
Start Time: Wed Jul 10 18:29:52 2024
solver = Normal
Maximum thread count: 12
tnom = 27
temp = 27
method = modified trap
Direct Newton iteration for .op point succeeded.
Total elapsed time: 0.049 seconds.

