LTspice 24.0.12 for Windows
Circuit: * C:\Users\wilso\OneDrive\Desktop\Weather Station\Schematics\Automatic Power Switching\draft2.asc
Start Time: Sun Jul  7 14:23:18 2024
solver = Normal
Maximum thread count: 12
tnom = 27
temp = 27
method = modified trap
Direct Newton iteration for .op point succeeded.
Total elapsed time: 0.060 seconds.

